*Heading
** Job name: Job-LAM-10 Model name: Model-LAM-2
** Generated by: Abaqus/CAE 2022
*Preprint, echo=NO, model=NO, history=NO, contact=NO
**
** PARTS
**
*Part, name=Part-1
*Node
      1,           0.,         -15.,          2.5
      2,           0.,         -14.,          2.5
      3,           0.,         -13.,          2.5
      4,           0.,         -12.,          2.5
      5,           0.,         -11.,          2.5
      6,           0.,         -10.,          2.5
      7,           0.,          -9.,          2.5
      8,           0.,          -8.,          2.5
      9,           0.,          -7.,          2.5
     10,           0.,          -6.,          2.5
     11,           0.,          -5.,          2.5
     12,           0.,          -4.,          2.5
     13,           0.,          -3.,          2.5
     14,           0.,          -2.,          2.5
     15,           0.,          -1.,          2.5
     16,           0.,           0.,          2.5
     17,           0.,           1.,          2.5
     18,           0.,           2.,          2.5
     19,           0.,           3.,          2.5
     20,           0.,           4.,          2.5
** ... 6304 like lines cut
*Element, type=C3D8T
   1,  125,  126,  157,  156,    1,    2,   33,   32
   2,  126,  127,  158,  157,    2,    3,   34,   33
   3,  127,  128,  159,  158,    3,    4,   35,   34
   4,  128,  129,  160,  159,    4,    5,   36,   35
   5,  129,  130,  161,  160,    5,    6,   37,   36
   6,  130,  131,  162,  161,    6,    7,   38,   37
   7,  131,  132,  163,  162,    7,    8,   39,   38
   8,  132,  133,  164,  163,    8,    9,   40,   39
   9,  133,  134,  165,  164,    9,   10,   41,   40
  10,  134,  135,  166,  165,   10,   11,   42,   41
  11,  135,  136,  167,  166,   11,   12,   43,   42
  12,  136,  137,  168,  167,   12,   13,   44,   43
  13,  137,  138,  169,  168,   13,   14,   45,   44
  14,  138,  139,  170,  169,   14,   15,   46,   45
  15,  139,  140,  171,  170,   15,   16,   47,   46
  16,  140,  141,  172,  171,   16,   17,   48,   47
  17,  141,  142,  173,  172,   17,   18,   49,   48
  18,  142,  143,  174,  173,   18,   19,   50,   49
  19,  143,  144,  175,  174,   19,   20,   51,   50
  20,  144,  145,  176,  175,   20,   21,   52,   51
** ... 4480 like lines cut
*Nset, nset=_PickedSet8, internal, generate
    1,  6324,     1
*Elset, elset=_PickedSet8, internal, generate
    1,  4500,     1
** Section: Section-WP
*Solid Section, elset=_PickedSet8, material=nieji
,
*End Part
**  
*Part, name=from_new_cutter
*Node
      1,   2.70957303,          1.5,   -2.0493443
      2,   4.95422745,    1.5064286,  -3.73255587
      3,   4.86763811,   1.50027728,  -2.85484314
      4,   7.04948092,   1.50004411,   3.66544533
      5,  0.674552917,           0., -0.428636491
      6,   5.46693563,           0.,   7.19421005
      7,    7.2058382,   6.23115683,   5.39280128
      8,   8.77884197,   13.3767996,   1.97926211
      9,   2.04934382,          1.5,   2.70957232
     10,   3.73255587,    1.5064286,   4.95422745
     11,   2.85484314,   1.50027728,   4.86763811
     12,  -3.66544867,   1.50005639,   7.04947662
     13,  0.428636461,           0.,  0.674552917
     14,  -7.19405842,           0.,   5.46714067
     15,  -2.70957232,          1.5,   2.04934382
     16,  -4.95422745,    1.5064286,   3.73255587
     17,  -4.86763811,   1.50027728,   2.85484314
     18,  -7.04947662,   1.50005639,  -3.66544867
     19, -0.674552917,           0.,  0.428636461
     20,  -5.46714401,           0.,  -7.19406366
** ... 6847 like lines cut
*Element, type=C3D4T
    1, 1885, 1886, 1887, 1888
    2, 1889, 1890, 1891, 1887
    3, 1890, 1891, 1887, 1888
    4, 1888, 1892, 1893, 1894
    5, 1888, 1895, 1890, 1891
    6, 1888, 1886, 1893, 1885
    7, 1886, 1896, 1897, 1898
    8, 1886, 1890, 1899, 1887
    9, 1886, 1897, 1900, 1894
   10, 1886, 1897, 1896, 1900
   11, 1888, 1886, 1890, 1894
   12, 1886, 1900, 1890, 1894
   13, 1901, 1902, 1903, 1904
   14, 1905, 1902, 1906, 1903
   15, 1907, 1811, 1777, 1783
   16, 1902, 1908, 1909, 1910
   17, 1911, 1904, 1910, 1901
   18, 1904, 1910, 1901, 1902
   19, 1902, 1892, 1912, 1910
   20, 1913, 1914, 1915, 1916
** ... 35562 like lines cut
*Nset, nset=_PickedSet5, internal, generate
    1,  6867,     1
*Elset, elset=_PickedSet5, internal, generate
     1,  35582,      1
** Section: Section-Tool
*Solid Section, elset=_PickedSet5, material=xidao
,
*End Part
**  
**
** ASSEMBLY
**
*Assembly, name=Assembly
**  
*Instance, name=Part-1-1, part=Part-1
          0.,           0.,           0.
          0.,           0.,           0., -1.00000001268805,           0., 6.12323420726539e-17, 89.9999992730282
*End Instance
**  
*Instance, name=from_new_cutter-1, part=from_new_cutter
       -11.5,         2.24,           0.
*End Instance
**  
*Node
      1,        -11.5,    2.2398808, 1.13305854e-09
*Nset, nset=Node-nieji, instance=Part-1-1, generate
    1,  6324,     1
*Nset, nset=Set-4, instance=Part-1-1
   94,   95,   96,   97,   98,   99,  100,  101,  102,  103,  104,  105,  106,  107,  108,  109
  110,  111,  112,  113,  114,  115,  116,  117,  118,  119,  120,  121,  122,  123,  124,  218
  219,  220,  221,  222,  223,  224,  225,  226,  227,  228,  229,  230,  231,  232,  233,  234
  235,  236,  237,  238,  239,  240,  241,  242,  243,  244,  245,  246,  247,  248,  342,  343
  344,  345,  346,  347,  348,  349,  350,  351,  352,  353,  354,  355,  356,  357,  358,  359
  360,  361,  362,  363,  364,  365,  366,  367,  368,  369,  370,  371,  372,  466,  467,  468
  469,  470,  471,  472,  473,  474,  475,  476,  477,  478,  479,  480,  481,  482,  483,  484
  485,  486,  487,  488,  489,  490,  491,  492,  493,  494,  495,  496,  590,  591,  592,  593
  594,  595,  596,  597,  598,  599,  600,  601,  602,  603,  604,  605,  606,  607,  608,  609
  610,  611,  612,  613,  614,  615,  616,  617,  618,  619,  620,  714,  715,  716,  717,  718
  719,  720,  721,  722,  723,  724,  725,  726,  727,  728,  729,  730,  731,  732,  733,  734
  735,  736,  737,  738,  739,  740,  741,  742,  743,  744,  838,  839,  840,  841,  842,  843
  844,  845,  846,  847,  848,  849,  850,  851,  852,  853,  854,  855,  856,  857,  858,  859
  860,  861,  862,  863,  864,  865,  866,  867,  868,  962,  963,  964,  965,  966,  967,  968
  969,  970,  971,  972,  973,  974,  975,  976,  977,  978,  979,  980,  981,  982,  983,  984
  985,  986,  987,  988,  989,  990,  991,  992, 1086, 1087, 1088, 1089, 1090, 1091, 1092, 1093
 1094, 1095, 1096, 1097, 1098, 1099, 1100, 1101, 1102, 1103, 1104, 1105, 1106, 1107, 1108, 1109
 1110, 1111, 1112, 1113, 1114, 1115, 1116, 1210, 1211, 1212, 1213, 1214, 1215, 1216, 1217, 1218
 1219, 1220, 1221, 1222, 1223, 1224, 1225, 1226, 1227, 1228, 1229, 1230, 1231, 1232, 1233, 1234
 1235, 1236, 1237, 1238, 1239, 1240, 1334, 1335, 1336, 1337, 1338, 1339, 1340, 1341, 1342, 1343
** ... 79 like lines cut
*Elset, elset=Set-4, instance=Part-1-1
   61,   62,   63,   64,   65,   66,   67,   68,   69,   70,   71,   72,   73,   74,   75,   76
   77,   78,   79,   80,   81,   82,   83,   84,   85,   86,   87,   88,   89,   90,  151,  152
  153,  154,  155,  156,  157,  158,  159,  160,  161,  162,  163,  164,  165,  166,  167,  168
  169,  170,  171,  172,  173,  174,  175,  176,  177,  178,  179,  180,  241,  242,  243,  244
  245,  246,  247,  248,  249,  250,  251,  252,  253,  254,  255,  256,  257,  258,  259,  260
  261,  262,  263,  264,  265,  266,  267,  268,  269,  270,  331,  332,  333,  334,  335,  336
  337,  338,  339,  340,  341,  342,  343,  344,  345,  346,  347,  348,  349,  350,  351,  352
  353,  354,  355,  356,  357,  358,  359,  360,  421,  422,  423,  424,  425,  426,  427,  428
  429,  430,  431,  432,  433,  434,  435,  436,  437,  438,  439,  440,  441,  442,  443,  444
  445,  446,  447,  448,  449,  450,  511,  512,  513,  514,  515,  516,  517,  518,  519,  520
  521,  522,  523,  524,  525,  526,  527,  528,  529,  530,  531,  532,  533,  534,  535,  536
  537,  538,  539,  540,  601,  602,  603,  604,  605,  606,  607,  608,  609,  610,  611,  612
  613,  614,  615,  616,  617,  618,  619,  620,  621,  622,  623,  624,  625,  626,  627,  628
  629,  630,  691,  692,  693,  694,  695,  696,  697,  698,  699,  700,  701,  702,  703,  704
  705,  706,  707,  708,  709,  710,  711,  712,  713,  714,  715,  716,  717,  718,  719,  720
  781,  782,  783,  784,  785,  786,  787,  788,  789,  790,  791,  792,  793,  794,  795,  796
  797,  798,  799,  800,  801,  802,  803,  804,  805,  806,  807,  808,  809,  810,  871,  872
  873,  874,  875,  876,  877,  878,  879,  880,  881,  882,  883,  884,  885,  886,  887,  888
  889,  890,  891,  892,  893,  894,  895,  896,  897,  898,  899,  900,  961,  962,  963,  964
  965,  966,  967,  968,  969,  970,  971,  972,  973,  974,  975,  976,  977,  978,  979,  980
** ... 74 like lines cut
*Nset, nset=_PickedSet19, internal, instance=Part-1-1, generate
    1,  6324,     1
*Elset, elset=_PickedSet19, internal, instance=Part-1-1, generate
    1,  4500,     1
*Nset, nset=_PickedSet37, internal
 1,
*Nset, nset=_PickedSet38, internal
 1,
*Nset, nset=_PickedSet39, internal
 1,
*Nset, nset=_PickedSet40, internal, instance=from_new_cutter-1, generate
    1,  6867,     1
*Elset, elset=_PickedSet40, internal, instance=from_new_cutter-1, generate
     1,  35582,      1
*Elset, elset=_Surf-5_S1, internal, instance=from_new_cutter-1
  2041,  2577,  2691,  2738,  2857,  2867,  2868,  2878,  2938,  3053,  3145,  3198,  3224,  3237,  3258,  3359
  3382,  3465,  3644,  3675,  3824,  3914,  4062,  4086,  4090,  4111,  4138,  4220,  4226,  4284,  4324,  4381
  4538,  4632,  4652,  4712,  4725,  4776,  4956,  4958,  4975,  4997,  5015,  5027,  5038,  5111,  5127,  5199
  5202,  5229,  5364,  5577,  5705,  5802,  6012,  6449,  6625,  6631,  6678,  6764,  6775,  6835,  6981,  7217
  7252,  7269,  7357,  7460,  7504,  7590,  7832,  8021,  8029,  8139,  8561,  8598,  8767,  8800,  8972,  9042
  9081,  9162,  9252,  9266, 10514, 10709, 11140, 11157, 11164, 11199, 11447, 11618, 11678, 11742, 11773, 11864
 12165, 12221, 12498, 12542, 12639, 12710, 13182, 13284, 13656, 13720, 13837, 13998, 14004, 14080, 14333, 14411
 15108, 15131, 15164, 15221, 15414, 15719, 16107, 16910, 17406, 17772, 18360, 18714, 18797, 19395, 19499, 20663
 20715, 21531, 21603, 22223, 22380, 22852, 23665, 23883, 23885, 24029, 24274, 24317, 24348, 24351, 25164, 25691
 25737, 26038, 26040, 26265, 27320, 28075, 28877, 29215, 29713, 30056, 30058, 30397, 30434, 30457, 30705
*Elset, elset=_Surf-5_S2, internal, instance=from_new_cutter-1
   175,   302,   516,   727,  1732,  2272,  2509,  2562,  2614,  2618,  2759,  3030,  3057,  3254,  3257,  3258
  3265,  3293,  3305,  3309,  3316,  3321,  3371,  3399,  3496,  3520,  3534,  3668,  3681,  3717,  3729,  3741
  3815,  3837,  3911,  4003,  4086,  4089,  4090,  4110,  4116,  4129,  4207,  4226,  4258,  4284,  4300,  4314
  4319,  4324,  4357,  4693,  4706,  4712,  4722,  4762,  4832,  4859,  4966,  4984,  4995,  5150,  5153,  5212
  5371,  5433,  5437,  5455,  5488,  5611,  5650,  5678,  5953,  6070,  6156,  6167,  6198,  6279,  6561,  6591
  6615,  6785,  6807,  6916,  6947,  7058,  7076,  7088,  7114,  7148,  7149,  7154,  7170,  7200,  7253,  7320
  7436,  7564,  7601,  7612,  7682,  7718,  7917,  8221,  8336,  8398,  8537,  8583,  8633,  8723,  8772,  8876
  8888,  8898,  8903,  8975,  9008,  9031,  9036,  9054,  9055,  9135,  9156,  9265,  9283,  9291,  9369,  9477
  9595,  9766,  9867,  9952,  9976, 10085, 10190, 10287, 10326, 10464, 10527, 10658, 10701, 10716, 10727, 10734
 10802, 10847, 11023, 11065, 11079, 11209, 11228, 11375, 11386, 11442, 11471, 11487, 11533, 11545, 11666, 11670
 11696, 11707, 11758, 11782, 11910, 12067, 12248, 12259, 12421, 12507, 12571, 12678, 12741, 13116, 13120, 13136
 13210, 13314, 13408, 13423, 13461, 13481, 13588, 13636, 13663, 13860, 13917, 13994, 14096, 14143, 14414, 14427
 14547, 14779, 14949, 14950, 15220, 15362, 16458, 17036, 18154, 18440, 19553, 21109, 21603, 22053, 26828, 30518
*Elset, elset=_Surf-5_S3, internal, instance=from_new_cutter-1
    15,    45,   141,   172,   217,   278,   379,   384,   385,   491,   516,   552,   571,   588,   614,   634
   688,   759,   772,   783,   861,   976,   977,  1031,  1051,  1072,  1126,  1137,  1155,  1163,  1177,  1196
  1286,  1391,  1451,  1460,  1481,  1598,  1629,  1687,  1802,  1806,  1874,  1908,  2041,  2053,  2076,  2131
  2272,  2361,  2415,  2506,  2507,  2512,  2528,  2529,  2538,  2541,  2547,  2551,  2554,  2558,  2561,  2563
  2568,  2570,  2571,  2573,  2577,  2579,  2584,  2585,  2588,  2590,  2594,  2602,  2606,  2607,  2617,  2625
  2627,  2628,  2630,  2632,  2654,  2656,  2657,  2658,  2659,  2660,  2664,  2672,  2678,  2681,  2682,  2686
  2687,  2690,  2691,  2695,  2698,  2701,  2707,  2709,  2710,  2712,  2714,  2719,  2723,  2725,  2731,  2733
  2734,  2738,  2743,  2749,  2763,  2766,  2767,  2771,  2781,  2783,  2787,  2789,  2793,  2798,  2811,  2823
  2833,  2836,  2837,  2846,  2847,  2850,  2855,  2867,  2868,  2871,  2872,  2874,  2875,  2876,  2878,  2882
  2892,  2898,  2901,  2910,  2911,  2914,  2916,  2918,  2919,  2928,  2933,  2936,  2946,  2952,  2955,  2956
  2958,  2961,  2964,  2966,  2968,  2976,  2978,  2987,  2991,  2995,  2996,  3000,  3001,  3013,  3014,  3018
  3024,  3030,  3037,  3039,  3044,  3045,  3047,  3050,  3055,  3057,  3059,  3065,  3066,  3068,  3070,  3073
  3078,  3082,  3086,  3088,  3091,  3092,  3093,  3095,  3099,  3100,  3103,  3104,  3108,  3109,  3115,  3119
  3120,  3126,  3127,  3133,  3136,  3139,  3143,  3144,  3145,  3148,  3159,  3160,  3164,  3166,  3174,  3176
  3178,  3189,  3190,  3197,  3198,  3207,  3209,  3211,  3216,  3224,  3229,  3232,  3237,  3242,  3252,  3256
  3268,  3276,  3277,  3281,  3290,  3325,  3327,  3328,  3331,  3334,  3336,  3345,  3348,  3349,  3353,  3355
  3356,  3362,  3363,  3364,  3366,  3368,  3370,  3372,  3374,  3379,  3382,  3388,  3404,  3413,  3418,  3424
  3426,  3431,  3441,  3443,  3449,  3453,  3469,  3471,  3472,  3473,  3474,  3475,  3478,  3479,  3489,  3492
  3500,  3516,  3521,  3531,  3533,  3537,  3540,  3548,  3554,  3558,  3569,  3573,  3580,  3583,  3588,  3589
  3590,  3593,  3595,  3596,  3600,  3602,  3603,  3617,  3618,  3624,  3628,  3630,  3635,  3637,  3644,  3656
** ... 182 like lines cut
*Elset, elset=_Surf-5_S4, internal, instance=from_new_cutter-1
   289,   307,   318,   417,   508,   537,   583,  1329,  1503,  2506,  2531,  2580,  2759,  2841,  2914,  2924
  3226,  3254,  3271,  3278,  3297,  3333,  3379,  3424,  3465,  3503,  3665,  3824,  4109,  4128,  4249,  4283
  4587,  4590,  4605,  4731,  4808,  4830,  4862,  4870,  4885,  4892,  4942,  4984,  5011,  5118,  5205,  5236
  5255,  5448,  5475,  5546,  6148,  6182,  6352,  6512,  6546,  6566,  6666,  6687,  6783,  6785,  6822,  6826
  6978,  7022,  7073,  7113,  7400,  7405,  7493,  7597,  7752,  7917,  8218,  8390,  8857,  9121,  9246,  9247
  9386,  9491,  9509,  9578,  9582,  9592,  9626,  9724,  9829, 10015, 10075, 10130, 10190, 10208, 10244, 10307
 10588, 10982, 11611, 11614, 11866, 12304, 12332, 12431, 12530, 12759, 13233, 13244, 13257, 13305, 13335, 13387
 13449, 13505, 13649, 13734, 14393, 14919, 14943, 14949, 15048, 15296, 15342, 16364, 16650, 17319, 18461, 19071
 19093, 19191, 19254, 19255, 19395, 19516, 19724, 19819, 19871, 19881, 19920, 20172, 20280, 20771, 21003, 21109
 21181, 21416, 21505, 21620, 21712, 21977, 23132, 23252, 23486, 23578, 23589, 23810, 23965, 24459, 24499, 25686
 25711, 25733, 25978, 25979, 26628, 28508, 29769, 30102, 30518, 30577, 30689, 30701, 30798, 31722
*Surface, type=ELEMENT, name=Surf-5
_Surf-5_S1, S1
_Surf-5_S2, S2
_Surf-5_S4, S4
_Surf-5_S3, S3
*Elset, elset=_Surf-heat_S3, internal, instance=Part-1-1
    1,    2,    3,    4,    5,    6,    7,    8,    9,   10,   11,   12,   13,   14,   15,   16
   17,   18,   19,   20,   21,   22,   23,   24,   25,   26,   27,   28,   29,   30,   91,   92
   93,   94,   95,   96,   97,   98,   99,  100,  101,  102,  103,  104,  105,  106,  107,  108
  109,  110,  111,  112,  113,  114,  115,  116,  117,  118,  119,  120,  181,  182,  183,  184
  185,  186,  187,  188,  189,  190,  191,  192,  193,  194,  195,  196,  197,  198,  199,  200
  201,  202,  203,  204,  205,  206,  207,  208,  209,  210,  271,  272,  273,  274,  275,  276
  277,  278,  279,  280,  281,  282,  283,  284,  285,  286,  287,  288,  289,  290,  291,  292
  293,  294,  295,  296,  297,  298,  299,  300,  361,  362,  363,  364,  365,  366,  367,  368
  369,  370,  371,  372,  373,  374,  375,  376,  377,  378,  379,  380,  381,  382,  383,  384
  385,  386,  387,  388,  389,  390,  451,  452,  453,  454,  455,  456,  457,  458,  459,  460
  461,  462,  463,  464,  465,  466,  467,  468,  469,  470,  471,  472,  473,  474,  475,  476
  477,  478,  479,  480,  541,  542,  543,  544,  545,  546,  547,  548,  549,  550,  551,  552
  553,  554,  555,  556,  557,  558,  559,  560,  561,  562,  563,  564,  565,  566,  567,  568
  569,  570,  631,  632,  633,  634,  635,  636,  637,  638,  639,  640,  641,  642,  643,  644
  645,  646,  647,  648,  649,  650,  651,  652,  653,  654,  655,  656,  657,  658,  659,  660
  721,  722,  723,  724,  725,  726,  727,  728,  729,  730,  731,  732,  733,  734,  735,  736
  737,  738,  739,  740,  741,  742,  743,  744,  745,  746,  747,  748,  749,  750,  811,  812
  813,  814,  815,  816,  817,  818,  819,  820,  821,  822,  823,  824,  825,  826,  827,  828
  829,  830,  831,  832,  833,  834,  835,  836,  837,  838,  839,  840,  901,  902,  903,  904
  905,  906,  907,  908,  909,  910,  911,  912,  913,  914,  915,  916,  917,  918,  919,  920
** ... 74 like lines cut
*Surface, type=ELEMENT, name=Surf-heat
_Surf-heat_S3, S3
*Elset, elset=_Surf-nieji_S1, internal, instance=Part-1-1, generate
 4411,  4500,     1
*Elset, elset=_Surf-nieji_S2, internal, instance=Part-1-1, generate
  1,  90,   1
*Elset, elset=_Surf-nieji_S3, internal, instance=Part-1-1
    1,    2,    3,    4,    5,    6,    7,    8,    9,   10,   11,   12,   13,   14,   15,   16
   17,   18,   19,   20,   21,   22,   23,   24,   25,   26,   27,   28,   29,   30,   91,   92
   93,   94,   95,   96,   97,   98,   99,  100,  101,  102,  103,  104,  105,  106,  107,  108
  109,  110,  111,  112,  113,  114,  115,  116,  117,  118,  119,  120,  181,  182,  183,  184
  185,  186,  187,  188,  189,  190,  191,  192,  193,  194,  195,  196,  197,  198,  199,  200
  201,  202,  203,  204,  205,  206,  207,  208,  209,  210,  271,  272,  273,  274,  275,  276
  277,  278,  279,  280,  281,  282,  283,  284,  285,  286,  287,  288,  289,  290,  291,  292
  293,  294,  295,  296,  297,  298,  299,  300,  361,  362,  363,  364,  365,  366,  367,  368
  369,  370,  371,  372,  373,  374,  375,  376,  377,  378,  379,  380,  381,  382,  383,  384
  385,  386,  387,  388,  389,  390,  451,  452,  453,  454,  455,  456,  457,  458,  459,  460
  461,  462,  463,  464,  465,  466,  467,  468,  469,  470,  471,  472,  473,  474,  475,  476
  477,  478,  479,  480,  541,  542,  543,  544,  545,  546,  547,  548,  549,  550,  551,  552
  553,  554,  555,  556,  557,  558,  559,  560,  561,  562,  563,  564,  565,  566,  567,  568
  569,  570,  631,  632,  633,  634,  635,  636,  637,  638,  639,  640,  641,  642,  643,  644
  645,  646,  647,  648,  649,  650,  651,  652,  653,  654,  655,  656,  657,  658,  659,  660
  721,  722,  723,  724,  725,  726,  727,  728,  729,  730,  731,  732,  733,  734,  735,  736
  737,  738,  739,  740,  741,  742,  743,  744,  745,  746,  747,  748,  749,  750,  811,  812
  813,  814,  815,  816,  817,  818,  819,  820,  821,  822,  823,  824,  825,  826,  827,  828
  829,  830,  831,  832,  833,  834,  835,  836,  837,  838,  839,  840,  901,  902,  903,  904
  905,  906,  907,  908,  909,  910,  911,  912,  913,  914,  915,  916,  917,  918,  919,  920
** ... 74 like lines cut
*Elset, elset=_Surf-nieji_S4, internal, instance=Part-1-1, generate
   30,  4500,    30
*Elset, elset=_Surf-nieji_S5, internal, instance=Part-1-1
   61,   62,   63,   64,   65,   66,   67,   68,   69,   70,   71,   72,   73,   74,   75,   76
   77,   78,   79,   80,   81,   82,   83,   84,   85,   86,   87,   88,   89,   90,  151,  152
  153,  154,  155,  156,  157,  158,  159,  160,  161,  162,  163,  164,  165,  166,  167,  168
  169,  170,  171,  172,  173,  174,  175,  176,  177,  178,  179,  180,  241,  242,  243,  244
  245,  246,  247,  248,  249,  250,  251,  252,  253,  254,  255,  256,  257,  258,  259,  260
  261,  262,  263,  264,  265,  266,  267,  268,  269,  270,  331,  332,  333,  334,  335,  336
  337,  338,  339,  340,  341,  342,  343,  344,  345,  346,  347,  348,  349,  350,  351,  352
  353,  354,  355,  356,  357,  358,  359,  360,  421,  422,  423,  424,  425,  426,  427,  428
  429,  430,  431,  432,  433,  434,  435,  436,  437,  438,  439,  440,  441,  442,  443,  444
  445,  446,  447,  448,  449,  450,  511,  512,  513,  514,  515,  516,  517,  518,  519,  520
  521,  522,  523,  524,  525,  526,  527,  528,  529,  530,  531,  532,  533,  534,  535,  536
  537,  538,  539,  540,  601,  602,  603,  604,  605,  606,  607,  608,  609,  610,  611,  612
  613,  614,  615,  616,  617,  618,  619,  620,  621,  622,  623,  624,  625,  626,  627,  628
  629,  630,  691,  692,  693,  694,  695,  696,  697,  698,  699,  700,  701,  702,  703,  704
  705,  706,  707,  708,  709,  710,  711,  712,  713,  714,  715,  716,  717,  718,  719,  720
  781,  782,  783,  784,  785,  786,  787,  788,  789,  790,  791,  792,  793,  794,  795,  796
  797,  798,  799,  800,  801,  802,  803,  804,  805,  806,  807,  808,  809,  810,  871,  872
  873,  874,  875,  876,  877,  878,  879,  880,  881,  882,  883,  884,  885,  886,  887,  888
  889,  890,  891,  892,  893,  894,  895,  896,  897,  898,  899,  900,  961,  962,  963,  964
  965,  966,  967,  968,  969,  970,  971,  972,  973,  974,  975,  976,  977,  978,  979,  980
** ... 74 like lines cut
*Elset, elset=_Surf-nieji_S6, internal, instance=Part-1-1, generate
    1,  4471,    30
*Surface, type=ELEMENT, name=Surf-nieji
_Surf-nieji_S1, S1
_Surf-nieji_S2, S2
_Surf-nieji_S4, S4
_Surf-nieji_S6, S6
_Surf-nieji_S3, S3
_Surf-nieji_S5, S5
** Constraint: Constraint-2
*Rigid Body, ref node=_PickedSet39, elset=_PickedSet40
*End Assembly
** 
** MATERIALS
** 
*Material, name=nieji
*Conductivity
 13.5,  20.
 14.7, 100.
 15.9, 200.
 17.6, 300.
 18.8, 400.
 20.1, 500.
 21.8, 600.
  23., 700.
 24.3, 800.
  26., 900.
 27.6,1000.
*Damage Initiation, criterion=JOHNSON COOK
 -0.239, 0.456,  -0.3,    0.,   2.5, 1400.,   20.,    1.
*Damage Evolution, type=DISPLACEMENT
 0.1,
*Density
 8.24e-09,
*Elastic
204000.,  0.3,  20.
204000.,  0.3, 100.
204000.,  0.3, 200.
181000.,  0.3, 300.
176000., 0.31, 400.
176000., 0.31, 450.
160000., 0.32, 500.
160000., 0.32, 550.
150000., 0.32, 600.
146000., 0.32, 650.
141000., 0.33, 700.
*Expansion
 1.32e-05, 20.
 1.33e-05,100.
 1.38e-05,200.
  1.4e-05,300.
 1.46e-05,400.
  1.5e-05,500.
 1.58e-05,600.
  1.7e-05,700.
 1.84e-05,800.
 1.87e-05,900.
*Inelastic Heat Fraction
         0.9,
*Plastic, hardening=JOHNSON COOK
985., 949.,  0.4,  1.3,1400.,  20.
*Rate Dependent, type=JOHNSON COOK
 0.0312,1.
*Specific Heat
 4.074e+08,100.
 4.814e+08,300.
 4.939e+08,400.
 5.148e+08,500.
  5.39e+08,600.
 5.734e+08,700.
 6.154e+08,800.
 6.572e+08,900.
*Material, name=xidao
*Conductivity
 79.6,
*Density
 1.485e-08,
*Elastic
640000., 0.22
*Expansion
 4.7e-06,
*Specific Heat
 2.03e+08,
** 
** INTERACTION PROPERTIES
** 
*Surface Interaction, name=IntProp-1
*Friction
 0.2,
*Surface Behavior, pressure-overclosure=HARD
** 
** BOUNDARY CONDITIONS
** 
** Name: BC-1 Type: Symmetry/Antisymmetry/Encastre
*Boundary
Set-4, ENCASTRE
** 
** PREDEFINED FIELDS
** 
** Name: Predefined Field-1   Type: Temperature
*Initial Conditions, type=TEMPERATURE
_PickedSet19, 20.
** ----------------------------------------------------------------
** 
** STEP: Mill
** 
*Step, name=Mill, nlgeom=YES
*Dynamic Temperature-displacement, Explicit
, 0.03
*Bulk Viscosity
0.06, 1.2
** Mass Scaling: Semi-Automatic
**               Whole Model
*Fixed Mass Scaling, dt=1e-06, type=below min
** 
** BOUNDARY CONDITIONS
** 
** Name: BC-2 Type: Velocity/Angular velocity
*Boundary, type=VELOCITY
_PickedSet37, 1, 1, 500.
_PickedSet37, 2, 2
_PickedSet37, 3, 3
_PickedSet37, 4, 4
_PickedSet37, 6, 6
** Name: BC-3 Type: Velocity/Angular velocity
*Boundary, type=VELOCITY
_PickedSet38, 2, 2
_PickedSet38, 3, 3
_PickedSet38, 4, 4
_PickedSet38, 5, 5, -500.
_PickedSet38, 6, 6
** 
** LOADS
** 
** Name: Load-1   Type: Surface heat flux
*Dsflux
Surf-heat, SNU, 0.
** 
** INTERACTIONS
** 
** Interaction: Int-1
*Contact, op=NEW
*Contact Inclusions
Surf-5 , Surf-nieji
Surf-nieji , 
*Contact Property Assignment
 ,  , IntProp-1
** 
** OUTPUT REQUESTS
** 
*Restart, write, number interval=1, time marks=NO
** 
** FIELD OUTPUT: F-Output-1
** 
*Output, field, number interval=100
*Node Output
U, 
*Element Output, directions=YES
E, LE, MISES, PE, PEEQ, PEEQVAVG, S, STATUS, TEMP
** 
** HISTORY OUTPUT: H-Output-1
** 
*Output, history, variable=PRESELECT
*End Step
